26
Energy =
C    -0.9592872   10.0870394   -0.0000000 
C    -0.8969460   11.5198026    0.0000000 
C     0.2722910   12.1954418   -0.0000000 
C     1.5376126   11.5211809    0.0000000 
C     1.5175951   10.0777403   -0.0000000 
C     0.3165951    9.4240412    0.0000000 
C    -2.1555143    9.3921334    0.0000000 
C    -2.2634419    7.9749421   -0.0000000 
C    -3.4310635   10.0202257   -0.0000000 
C     5.2099318   12.2084702   -0.0000000 
C     5.3162775   13.6258219    0.0000000 
C     6.4862234   11.5819250    0.0000000 
N    -2.4542673    6.8380461   -0.0000000 
N    -4.5045467   10.4401533   -0.0000000 
N     5.5052651   14.7630723   -0.0000000 
N     7.5604483   11.1638692    0.0000000 
F     0.2907508    8.1093511   -0.0000000 
F    -2.0215634   12.2081865    0.0000000 
F     0.2342267   13.5114787   -0.0000000 
C     2.7831091    9.4038395    0.0000000 
C     2.7382652   12.1751012   -0.0000000 
C     4.0143061   11.5125894    0.0000000 
C     3.9522604   10.0798418   -0.0000000 
F     5.0772540    9.3919579    0.0000000 
F     2.7636944   13.4899204    0.0000000 
F     2.8215238    8.0878281   -0.0000000 
