5
gdb 1	157.7118	157.70997	157.70699	0.	13.21	-0.3877	0.1171	0.5048	35.3641	0.044749	-40.47893	-40.476062	-40.475117	-40.498597	6.469	
C   -0.012698   1.085804   0.008001
H   0.002150   -0.006031   0.001976
H   1.011731   1.463751   0.000277
H   -0.540815   1.447527   -0.876644
H   -0.523814   1.437933   0.906397
