15
gdb 104557	2.5	1.33109	1.05408	4.7843	66.51	-0.2662	-0.0134	0.2527	1140.553	0.112157	-453.969496	-453.960942	-453.959998	-454.002998	30.902	
N	 1.714*^-7	 1.5653827535	 0.036480174	-0.500381
C	-0.2366864859	 0.1331427312	 0.0633870485	-0.204941
C	 0.6917433378	-0.5208791818	 1.0831257119	 0.255726
C	 0.8506031421	-2.059456098	 0.9951468927	-0.476735
C	 2.2688126912	-1.7266135848	 0.5365689481	 0.456268
O	 3.2388647483	-2.3015305315	 0.1752541256	-0.295171
O	 2.098382565	-0.3622746839	 0.6610879821	-0.265132
C	 0.5023646186	 0.0020546064	 2.4369747388	 0.297296
N	 0.3255994685	 0.3556194936	 3.5219806227	-0.323616
H	 0.9118668991	 1.7624498249	-0.3627582473	 0.249562
H	-0.6939068966	 2.0360915583	-0.5321473825	 0.243561
H	-1.2710335792	-0.0540454213	 0.3730764689	 0.133918
H	-0.0784826896	-0.3906054334	-0.8951811197	 0.10101
H	 0.7991677249	-2.5969074232	 1.9419605022	 0.171943
H	 0.2297600145	-2.5539105398	 0.2465278841	 0.156692
82.2501	112.8313	166.83	186.641	230.7852	279.745	390.7536	408.6367	474.399	518.7761	527.3867	601.7824	657.1042	797.7653	832.1619	861.4739	914.0546	943.7135	984.396	1072.9133	1097.8248	1130.7911	1157.4958	1204.7448	1237.3536	1256.2188	1347.9948	1423.5512	1452.8797	1489.4673	1658.833	1958.6667	2366.5021	2954.2364	3070.2178	3098.9478	3162.177	3516.9888	3602.1117
NCC1(CC(=O)O1)C#N	NC[C@]1(CC(=O)O1)C#N	
InChI=1S/C5H6N2O2/c6-2-5(3-7)1-4(8)9-5/h1-2,6H2	InChI=1S/C5H6N2O2/c6-2-5(3-7)1-4(8)9-5/h1-2,6H2/t5-/m1/s1
