12
Energy =
O    -1.0625480    2.4542032    0.0013908 
C     0.1118261    2.1808746    0.0003752 
C     0.6864001    0.7895749    0.0000026 
C    -0.0692414   -0.3344963   -0.0001257 
Br   -1.9734783   -0.3799926   -0.0001406 
S     0.5688232   -1.9595928   -0.0003816 
C     2.3026197   -1.5988685    0.0014946 
N     2.8837806   -0.4732743    0.0015289 
C     2.1852364    0.7600025   -0.0007785 
O     2.8249403    1.7880298   -0.0031529 
H     0.8948901    2.9540055   -0.0003757 
H     2.8945442   -2.5139586    0.0029080 
