26
Energy =
C    -3.9875030    0.0435093    0.3070016 
C    -2.5912168   -0.5474421    0.4828944 
C    -1.8497590   -0.8877759   -0.8373532 
C    -1.0097085    0.3948712   -0.5965921 
C     0.5031566    0.3188414   -0.7443336 
C     1.3018095    1.5130124   -0.1218996 
C     2.1193591    0.5131783    0.7152111 
O     3.2832902    0.0018334    0.0169762 
C     2.5736842   -1.2054886   -0.3630170 
C     1.2535881   -0.6675595    0.2045020 
N    -1.5156495    0.4333953    0.8032944 
H    -3.9918406    0.8431298   -0.4434939 
H    -4.3568483    0.4616726    1.2506989 
H    -4.6995581   -0.7248431   -0.0152688 
H    -2.6349074   -1.3654187    1.2145615 
H    -2.4580279   -0.9131775   -1.7449569 
H    -1.2572228   -1.8048029   -0.7785080 
H    -1.3749882    1.2314222   -1.2141824 
H     0.7369031    0.1446604   -1.8028794 
H     0.6700409    2.1545135    0.5024006 
H     1.8883209    2.1349616   -0.8033723 
H     2.3317089    0.7416695    1.7646920 
H     2.9740768   -2.0837318    0.1624804 
H     2.6117299   -1.3901891   -1.4453918 
H     0.6472860   -1.3026921    0.8501832 
H    -1.8526737    1.3398863    1.1195671 
